# CIF file generated by openbabel 3.1.0, see https://openbabel.org
data_I
_chemical_name_common 'bew_v1-4c_Co_pw_v2-4c_Co_pw_2b_linear'
_cell_length_a 28.1891
_cell_length_b 25.1629
_cell_length_c 31.649
_cell_angle_alpha 90
_cell_angle_beta 90
_cell_angle_gamma 89.9987
_space_group_name_H-M_alt 'P 1'
_space_group_name_Hall 'P 1'
loop_
    _symmetry_equiv_pos_as_xyz
    x,y,z
loop_
    _atom_site_label
    _atom_site_type_symbol
    _atom_site_fract_x
    _atom_site_fract_y
    _atom_site_fract_z
    _atom_site_occupancy
    Co1      Co       0.99618    0.99964    0.03153    1.000
    Co2      Co       0.00011    0.00406    0.96180    1.000
    O3       O        0.02866    0.93650    0.03400    1.000
    O4       O        0.04237    0.94698    0.96240    1.000
    O5       O        0.94290    0.03856    0.04230    1.000
    O6       O        0.94014    0.03384    0.97125    1.000
    C7       C        0.06400    0.94030    0.00282    1.000
    C8       C        0.94659    0.06921    0.00549    1.000
    O9       O        0.95084    0.94797    0.03723    1.000
    O10      O        0.96412    0.94115    0.96231    1.000
    O11      O        0.04229    0.05281    0.03040    1.000
    O12      O        0.03599    0.06391    0.95978    1.000
    C13      C        0.06755    0.05962    0.99296    1.000
    C14      C        0.93077    0.93930    0.99635    1.000
    Co15     Co       0.25096    0.51133    0.96520    1.000
    Co16     Co       0.24798    0.50248    0.03285    1.000
    O17      O        0.32133    0.50659    0.95281    1.000
    O18      O        0.31150    0.49774    0.02348    1.000
    O19      O        0.18840    0.52978    0.97274    1.000
    O20      O        0.18565    0.50724    0.04338    1.000
    C21      C        0.33797    0.50045    0.98798    1.000
    C22      C        0.16963    0.49463    0.00210    1.000
    O23      O        0.26162    0.58453    0.97015    1.000
    O24      O        0.23830    0.57370    0.04063    1.000
    O25      O        0.24154    0.43683    0.96504    1.000
    O26      O        0.22961    0.43412    0.03749    1.000
    C27      C        0.25189    0.40882    0.00370    1.000
    C28      C        0.27229    0.59613    0.01335    1.000
    Co29     Co       0.74754    0.50146    0.03718    1.000
    Co30     Co       0.75061    0.50154    0.96342    1.000
    O31      O        0.68154    0.49701    0.03615    1.000
    O32      O        0.68507    0.49304    0.96074    1.000
    O33      O        0.81315    0.50566    0.03821    1.000
    O34      O        0.81552    0.50943    0.96541    1.000
    C35      C        0.66283    0.51521    0.99695    1.000
    C36      C        0.83056    0.48191    0.00133    1.000
    O37      O        0.72841    0.57163    0.03641    1.000
    O38      O        0.72963    0.57117    0.96401    1.000
    O39      O        0.73143    0.43027    0.03470    1.000
    O40      O        0.73776    0.42967    0.96200    1.000
    C41      C        0.75471    0.40821    0.99985    1.000
    C42      C        0.74959    0.59333    0.00041    1.000
    C143     C        0.56257    0.45864    0.02027    1.000
    C144     C        0.61496    0.45768    0.02007    1.000
    C145     C        0.63945    0.49760    0.00239    1.000
    C146     C        0.61405    0.54311    0.98330    1.000
    C147     C        0.56664    0.54408    0.98310    1.000
    C148     C        0.53896    0.49952    0.00226    1.000
    C149     C        0.48659    0.49984    0.00014    1.000
    C150     C        0.46425    0.52771    0.96716    1.000
    C151     C        0.41573    0.52688    0.96311    1.000
    C152     C        0.38847    0.49971    0.99261    1.000
    C153     C        0.40946    0.47277    0.02632    1.000
    C154     C        0.45851    0.47200    0.02974    1.000
    H155     H        0.54409    0.42489    0.03383    1.000
    H156     H        0.63342    0.42405    0.03367    1.000
    H157     H        0.63362    0.57587    0.96951    1.000
    H158     H        0.54904    0.57834    0.96939    1.000
    H159     H        0.48361    0.54936    0.94339    1.000
    H160     H        0.39926    0.54831    0.93725    1.000
    H161     H        0.38800    0.45147    0.04924    1.000
    H162     H        0.47378    0.45019    0.05582    1.000
    C123     C        0.04604    0.45601    0.98114    1.000
    C124     C        0.09480    0.45443    0.98255    1.000
    C125     C        0.11888    0.49676    0.00033    1.000
    C126     C        0.09554    0.54105    0.01622    1.000
    C127     C        0.04672    0.54272    0.01532    1.000
    C128     C        0.02099    0.49997    0.99808    1.000
    C129     C        0.96856    0.50088    0.99800    1.000
    C130     C        0.94131    0.55142    0.00410    1.000
    C131     C        0.89373    0.55073    0.00416    1.000
    C132     C        0.86802    0.50011    0.99769    1.000
    C133     C        0.89260    0.45510    0.99219    1.000
    C134     C        0.94422    0.45524    0.99284    1.000
    H135     H        0.02910    0.42246    0.96633    1.000
    H136     H        0.11365    0.42048    0.96960    1.000
    H137     H        0.11545    0.57367    0.02990    1.000
    H138     H        0.03011    0.57721    0.02900    1.000
    H139     H        0.95896    0.58935    0.00810    1.000
    H140     H        0.87409    0.58736    0.00841    1.000
    H141     H        0.87593    0.41759    0.98637    1.000
    H142     H        0.96104    0.41688    0.98950    1.000
    C103     C        0.77181    0.25209    0.99162    1.000
    C104     C        0.74252    0.29417    0.99256    1.000
    C105     C        0.76069    0.34711    0.00349    1.000
    C106     C        0.80656    0.35335    0.01241    1.000
    C107     C        0.83978    0.30733    0.01110    1.000
    C108     C        0.82382    0.25773    0.00135    1.000
    C109     C        0.85596    0.20939    0.00143    1.000
    C110     C        0.90110    0.21012    0.02102    1.000
    C111     C        0.92955    0.16448    0.02234    1.000
    C112     C        0.91426    0.11690    0.00401    1.000
    C113     C        0.87009    0.11568    0.98372    1.000
    C114     C        0.84134    0.16107    0.98262    1.000
    H115     H        0.75607    0.21406    0.98442    1.000
    H116     H        0.70502    0.28946    0.98598    1.000
    H117     H        0.81829    0.39246    0.02157    1.000
    H118     H        0.87669    0.31534    0.01818    1.000
    H119     H        0.91480    0.24528    0.03625    1.000
    H120     H        0.96381    0.16625    0.03779    1.000
    H121     H        0.85758    0.07964    0.96871    1.000
    H122     H        0.80784    0.15753    0.96648    1.000
    C83      C        0.90313    0.79138    0.00340    1.000
    C84      C        0.92872    0.83914    0.00309    1.000
    C85      C        0.90519    0.88750    0.99622    1.000
    C86      C        0.85643    0.88783    0.98960    1.000
    C87      C        0.83093    0.84050    0.98945    1.000
    C88      C        0.85359    0.79116    0.99634    1.000
    C89      C        0.82550    0.74029    0.99637    1.000
    C90      C        0.78242    0.73735    0.97724    1.000
    C91      C        0.75465    0.68746    0.97729    1.000
    C92      C        0.77154    0.64418    0.99670    1.000
    C93      C        0.81816    0.64619    0.01800    1.000
    C94      C        0.84390    0.69121    0.01772    1.000
    H95      H        0.92263    0.75497    0.00855    1.000
    H96      H        0.96674    0.83843    0.00827    1.000
    H97      H        0.83796    0.92506    0.98467    1.000
    H98      H        0.79317    0.84360    0.98465    1.000
    H99      H        0.76695    0.77068    0.96063    1.000
    H100     H        0.72054    0.68606    0.96146    1.000
    H101     H        0.83134    0.61102    0.03399    1.000
    H102     H        0.87767    0.69116    0.03406    1.000
    C63      C        0.19337    0.72153    0.04034    1.000
    C64      C        0.22146    0.67164    0.03996    1.000
    C65      C        0.22774    0.64475    0.00392    1.000
    C66      C        0.20647    0.66468    0.96435    1.000
    C67      C        0.18050    0.70951    0.96444    1.000
    C68      C        0.17307    0.74065    0.00446    1.000
    C69      C        0.14461    0.79158    0.00436    1.000
    C70      C        0.11266    0.80291    0.97130    1.000
    C71      C        0.08670    0.85030    0.97064    1.000
    C72      C        0.09181    0.88842    0.00298    1.000
    C73      C        0.12321    0.87735    0.03611    1.000
    C74      C        0.14916    0.82979    0.03690    1.000
    H75      H        0.18938    0.74118    0.07052    1.000
    H76      H        0.23701    0.65678    0.06900    1.000
    H77      H        0.21216    0.64294    0.93516    1.000
    H78      H        0.16610    0.72280    0.93454    1.000
    H79      H        0.10673    0.77515    0.94582    1.000
    H80      H        0.06237    0.85654    0.94466    1.000
    H81      H        0.12805    0.90588    0.06134    1.000
    H82      H        0.17338    0.82406    0.06291    1.000
    C43      C        0.17844    0.29111    0.96413    1.000
    C44      C        0.20381    0.33845    0.96478    1.000
    C45      C        0.22738    0.35527    0.00153    1.000
    C46      C        0.22513    0.32281    0.03765    1.000
    C47      C        0.19891    0.27552    0.03723    1.000
    C48      C        0.17499    0.25881    0.00034    1.000
    C49      C        0.14682    0.20824    0.99923    1.000
    C50      C        0.12836    0.18525    0.03640    1.000
    C51      C        0.10246    0.13783    0.03479    1.000
    C52      C        0.09503    0.11136    0.99602    1.000
    C53      C        0.11333    0.13419    0.95917    1.000
    C54      C        0.13825    0.18199    0.96060    1.000
    H55      H        0.16052    0.28129    0.93505    1.000
    H56      H        0.20404    0.36201    0.93623    1.000
    H57      H        0.24274    0.33469    0.06660    1.000
    H58      H        0.19796    0.25221    0.06591    1.000
    H59      H        0.13302    0.20395    0.06689    1.000
    H60      H        0.08872    0.12197    0.06415    1.000
    H61      H        0.10800    0.11513    0.92889    1.000
    H62      H        0.15150    0.19721    0.93101    1.000
