# CIF file generated by openbabel 3.1.0, see https://openbabel.org
data_I
_chemical_name_common 'pna_v1-4c_Co_pw_v2-4c_Co_pw_v3-4c_Co_pw_2b_linear'
_cell_length_a 45.3259
_cell_length_b 45.3277
_cell_length_c 32.1855
_cell_angle_alpha 90
_cell_angle_beta 90
_cell_angle_gamma 89.9992
_space_group_name_H-M_alt 'P 1'
_space_group_name_Hall 'P 1'
loop_
    _symmetry_equiv_pos_as_xyz
    x,y,z
loop_
    _atom_site_label
    _atom_site_type_symbol
    _atom_site_fract_x
    _atom_site_fract_y
    _atom_site_fract_z
    _atom_site_occupancy
    Co1      Co       0.99569    0.32853    0.02968    1.000
    Co2      Co       0.99907    0.33287    0.96043    1.000
    O3       O        0.99485    0.28907    0.03764    1.000
    O4       O        0.99829    0.29085    0.96273    1.000
    O5       O        0.99369    0.37007    0.02752    1.000
    O6       O        0.99907    0.37354    0.95858    1.000
    C7       C        0.00786    0.27728    0.00122    1.000
    C8       C        0.00927    0.38403    0.99665    1.000
    O9       O        0.95751    0.32092    0.04043    1.000
    O10      O        0.95899    0.32322    0.96731    1.000
    O11      O        0.03692    0.32143    0.03457    1.000
    O12      O        0.03931    0.32408    0.96348    1.000
    C13      C        0.04870    0.33690    0.00082    1.000
    C14      C        0.94897    0.33670    0.00456    1.000
    Co15     Co       0.33277    0.99512    0.96107    1.000
    Co16     Co       0.33681    0.99752    0.02804    1.000
    O17      O        0.29241    0.99310    0.95679    1.000
    O18      O        0.29565    0.00154    0.02485    1.000
    O19      O        0.37424    0.99861    0.96202    1.000
    O20      O        0.37619    0.99634    0.03648    1.000
    C21      C        0.28171    0.98457    0.99531    1.000
    C22      C        0.38815    0.98629    0.99804    1.000
    O23      O        0.34369    0.95547    0.96642    1.000
    O24      O        0.34556    0.95825    0.03692    1.000
    O25      O        0.34173    0.03493    0.96694    1.000
    O26      O        0.34749    0.03371    0.03971    1.000
    C27      C        0.33548    0.04945    0.00581    1.000
    C28      C        0.33509    0.94148    0.00382    1.000
    Co29     Co       0.00077    0.66213    0.96073    1.000
    Co30     Co       0.00391    0.65716    0.02871    1.000
    O31      O        0.00037    0.70278    0.95901    1.000
    O32      O        0.00898    0.69834    0.02613    1.000
    O33      O        0.00176    0.62037    0.96272    1.000
    O34      O        0.00253    0.61778    0.03766    1.000
    C35      C        0.99164    0.71256    0.99758    1.000
    C36      C        0.99154    0.60607    0.99978    1.000
    O37      O        0.96082    0.65219    0.96484    1.000
    O38      O        0.96421    0.64840    0.03572    1.000
    O39      O        0.04054    0.65201    0.96741    1.000
    O40      O        0.03988    0.64572    0.04034    1.000
    C41      C        0.05494    0.65822    0.00637    1.000
    C42      C        0.94721    0.65971    0.00321    1.000
    Co43     Co       0.49780    0.71970    0.95979    1.000
    Co44     Co       0.49910    0.72381    0.02917    1.000
    O45      O        0.47027    0.69129    0.95690    1.000
    O46      O        0.46807    0.69733    0.02543    1.000
    O47      O        0.52619    0.74938    0.96293    1.000
    O48      O        0.52693    0.75071    0.03827    1.000
    C49      C        0.47102    0.67694    0.99448    1.000
    C50      C        0.54320    0.75217    0.00042    1.000
    O51      O        0.53257    0.69807    0.96576    1.000
    O52      O        0.53267    0.70100    0.03558    1.000
    O53      O        0.47563    0.75407    0.96853    1.000
    O54      O        0.47981    0.75667    0.03975    1.000
    C55      C        0.45964    0.75460    0.00686    1.000
    C56      C        0.53053    0.68141    0.00267    1.000
    Co57     Co       0.72138    0.49954    0.96123    1.000
    Co58     Co       0.72646    0.49640    0.03025    1.000
    O59      O        0.69167    0.52740    0.95918    1.000
    O60      O        0.69827    0.52729    0.02710    1.000
    O61      O        0.75190    0.47048    0.96308    1.000
    O62      O        0.75469    0.46846    0.03754    1.000
    C63      C        0.67717    0.52386    0.99667    1.000
    C64      C        0.75323    0.45208    0.99978    1.000
    O65      O        0.70012    0.46480    0.96424    1.000
    O66      O        0.70505    0.46154    0.03334    1.000
    O67      O        0.75588    0.52198    0.97138    1.000
    O68      O        0.75885    0.51660    0.04253    1.000
    C69      C        0.75460    0.53715    0.01052    1.000
    C70      C        0.68461    0.46461    0.00216    1.000
    Co71     Co       0.27361    0.49251    0.96126    1.000
    Co72     Co       0.26978    0.49563    0.03052    1.000
    O73      O        0.30247    0.46513    0.95701    1.000
    O74      O        0.29687    0.46455    0.02626    1.000
    O75      O        0.24280    0.52083    0.96420    1.000
    O76      O        0.24263    0.52457    0.03800    1.000
    C77      C        0.31733    0.46625    0.99468    1.000
    C78      C        0.24464    0.54020    0.99954    1.000
    O79      O        0.29586    0.52659    0.96743    1.000
    O80      O        0.29298    0.52896    0.03634    1.000
    O81      O        0.23986    0.46921    0.96948    1.000
    O82      O        0.23677    0.47504    0.04027    1.000
    C83      C        0.24139    0.45425    0.00863    1.000
    C84      C        0.31274    0.52525    0.00415    1.000
    Co85     Co       0.50424    0.27329    0.96044    1.000
    Co86     Co       0.50238    0.26743    0.02945    1.000
    O87      O        0.53183    0.30294    0.95809    1.000
    O88      O        0.53412    0.29437    0.02611    1.000
    O89      O        0.47630    0.24216    0.96328    1.000
    O90      O        0.47384    0.24009    0.03749    1.000
    C91      C        0.53027    0.31625    0.99678    1.000
    C92      C        0.45776    0.24130    0.99959    1.000
    O93      O        0.46968    0.29413    0.96622    1.000
    O94      O        0.46864    0.28943    0.03586    1.000
    O95      O        0.52608    0.23876    0.96735    1.000
    O96      O        0.52081    0.23349    0.03801    1.000
    C97      C        0.54153    0.23622    0.00598    1.000
    C98      C        0.47102    0.30980    0.00405    1.000
    Co99     Co       0.66840    0.99484    0.96066    1.000
    Co100    Co       0.66285    0.99062    0.02924    1.000
    O101     O        0.70886    0.99412    0.95942    1.000
    O102     O        0.70409    0.98546    0.02667    1.000
    O103     O        0.62654    0.99431    0.96226    1.000
    O104     O        0.62369    0.99227    0.03774    1.000
    C105     C        0.71851    0.00278    0.99813    1.000
    C106     C        0.61184    0.00341    0.99983    1.000
    O107     O        0.66029    0.03507    0.96730    1.000
    O108     O        0.65492    0.03054    0.03569    1.000
    O109     O        0.65805    0.95538    0.96700    1.000
    O110     O        0.65093    0.95453    0.03933    1.000
    C111     C        0.66380    0.93997    0.00527    1.000
    C112     C        0.67234    0.04365    0.00592    1.000
    Co113    Co       0.00473    0.99522    0.96085    1.000
    Co114    Co       0.99923    0.99875    0.03003    1.000
    O115     O        0.96264    0.99575    0.96285    1.000
    O116     O        0.95946    0.99863    0.03713    1.000
    O117     O        0.04538    0.99498    0.95909    1.000
    O118     O        0.04089    0.00105    0.02685    1.000
    C119     C        0.94924    0.98448    0.00035    1.000
    C120     C        0.05344    0.98322    0.99706    1.000
    O121     O        0.99636    0.95491    0.96664    1.000
    O122     O        0.99093    0.95866    0.03534    1.000
    O123     O        0.99554    0.03574    0.96969    1.000
    O124     O        0.99032    0.03608    0.04094    1.000
    C125     C        0.00740    0.04692    0.00802    1.000
    C126     C        0.00790    0.94540    0.00517    1.000
    C467     C        0.79928    0.02041    0.98755    1.000
    C468     C        0.76866    0.02193    0.98811    1.000
    C469     C        0.75160    0.99785    0.99949    1.000
    C470     C        0.76602    0.97101    0.00976    1.000
    C471     C        0.79713    0.96935    0.00892    1.000
    C472     C        0.81429    0.99428    0.99807    1.000
    C473     C        0.84752    0.99367    0.99765    1.000
    C474     C        0.86292    0.96815    0.99359    1.000
    C475     C        0.89567    0.96824    0.99310    1.000
    C476     C        0.91058    0.99359    0.99725    1.000
    C477     C        0.89438    0.02163    0.00223    1.000
    C478     C        0.86475    0.02182    0.00217    1.000
    H479     H        0.81082    0.04004    0.97800    1.000
    H480     H        0.75788    0.04224    0.97929    1.000
    H481     H        0.75378    0.95138    0.01848    1.000
    H482     H        0.80767    0.94876    0.01752    1.000
    H483     H        0.85201    0.94709    0.98976    1.000
    H484     H        0.90766    0.94772    0.98924    1.000
    H485     H        0.90654    0.04208    0.00613    1.000
    H486     H        0.85377    0.04283    0.00645    1.000
    C447     C        0.62563    0.11784    0.96552    1.000
    C448     C        0.64234    0.09336    0.96580    1.000
    C449     C        0.64448    0.07515    0.00378    1.000
    C450     C        0.62998    0.08325    0.03820    1.000
    C451     C        0.61187    0.11041    0.03837    1.000
    C452     C        0.60930    0.12728    0.00374    1.000
    C453     C        0.59122    0.15492    0.00366    1.000
    C454     C        0.58537    0.17014    0.04099    1.000
    C455     C        0.56962    0.19639    0.04099    1.000
    C456     C        0.55868    0.20801    0.00406    1.000
    C457     C        0.56361    0.19269    0.96651    1.000
    C458     C        0.57997    0.16665    0.96633    1.000
    H459     H        0.62493    0.13086    0.93729    1.000
    H460     H        0.65447    0.08692    0.93820    1.000
    H461     H        0.63144    0.06987    0.06604    1.000
    H462     H        0.60051    0.11577    0.06698    1.000
    H463     H        0.59340    0.16250    0.07057    1.000
    H464     H        0.56570    0.20770    0.07010    1.000
    H465     H        0.55516    0.20073    0.93706    1.000
    H466     H        0.58328    0.15572    0.93683    1.000
    C427     C        0.36992    0.40736    0.96165    1.000
    C428     C        0.35033    0.43033    0.96091    1.000
    C429     C        0.33709    0.44016    0.99745    1.000
    C430     C        0.34306    0.42575    0.03531    1.000
    C431     C        0.36293    0.40249    0.03613    1.000
    C432     C        0.37697    0.39344    0.99922    1.000
    C433     C        0.39988    0.37071    0.00001    1.000
    C434     C        0.40094    0.34988    0.03222    1.000
    C435     C        0.42366    0.32962    0.03386    1.000
    C436     C        0.44586    0.33029    0.00361    1.000
    C437     C        0.44463    0.35053    0.97105    1.000
    C438     C        0.42185    0.37051    0.96907    1.000
    H439     H        0.37942    0.40103    0.93226    1.000
    H440     H        0.34577    0.44065    0.93135    1.000
    H441     H        0.33312    0.43260    0.06439    1.000
    H442     H        0.36789    0.39268    0.06600    1.000
    H443     H        0.38433    0.34892    0.05623    1.000
    H444     H        0.42377    0.31379    0.05897    1.000
    H445     H        0.46145    0.35096    0.94709    1.000
    H446     H        0.42249    0.38617    0.94378    1.000
    C407     C        0.61724    0.42010    0.02268    1.000
    C408     C        0.63787    0.44258    0.02309    1.000
    C409     C        0.66429    0.43924    0.00213    1.000
    C410     C        0.67067    0.41286    0.98095    1.000
    C411     C        0.65004    0.39013    0.98058    1.000
    C412     C        0.62277    0.39356    0.00121    1.000
    C413     C        0.59985    0.37004    0.00019    1.000
    C414     C        0.60687    0.34152    0.99258    1.000
    C415     C        0.58370    0.31857    0.99186    1.000
    C416     C        0.55540    0.32585    0.99827    1.000
    C417     C        0.54725    0.35694    0.00606    1.000
    C418     C        0.56814    0.37781    0.00717    1.000
    H419     H        0.59717    0.42395    0.03972    1.000
    H420     H        0.63326    0.46284    0.03966    1.000
    H421     H        0.69124    0.40991    0.96416    1.000
    H422     H        0.65541    0.37044    0.96313    1.000
    H423     H        0.62943    0.33445    0.98764    1.000
    H424     H        0.58977    0.29580    0.98629    1.000
    H425     H        0.52433    0.36296    0.01066    1.000
    H426     H        0.56126    0.40042    0.01230    1.000
    C387     C        0.57791    0.82427    0.96275    1.000
    C388     C        0.56185    0.79798    0.96240    1.000
    C389     C        0.55877    0.78135    0.99917    1.000
    C390     C        0.57096    0.79205    0.03596    1.000
    C391     C        0.58686    0.81809    0.03636    1.000
    C392     C        0.59115    0.83448    0.99977    1.000
    C393     C        0.60977    0.86158    0.00048    1.000
    C394     C        0.63129    0.86577    0.03177    1.000
    C395     C        0.64896    0.89086    0.03245    1.000
    C396     C        0.64567    0.91241    0.00212    1.000
    C397     C        0.62411    0.90850    0.97075    1.000
    C398     C        0.60661    0.88342    0.96990    1.000
    H399     H        0.58058    0.83579    0.93356    1.000
    H400     H        0.55259    0.79059    0.93311    1.000
    H401     H        0.56822    0.78006    0.06476    1.000
    H402     H        0.59563    0.82508    0.06586    1.000
    H403     H        0.63511    0.84967    0.05580    1.000
    H404     H        0.66521    0.89365    0.05681    1.000
    H405     H        0.62000    0.92488    0.94691    1.000
    H406     H        0.59024    0.88181    0.94559    1.000
    C367     C        0.42190    0.61699    0.03106    1.000
    C368     C        0.44462    0.63703    0.02916    1.000
    C369     C        0.44524    0.65755    0.99722    1.000
    C370     C        0.42215    0.65920    0.96822    1.000
    C371     C        0.39943    0.63914    0.96994    1.000
    C372     C        0.39930    0.61740    0.00102    1.000
    C373     C        0.37648    0.59462    0.00163    1.000
    C374     C        0.36156    0.58696    0.96495    1.000
    C375     C        0.34088    0.56463    0.96556    1.000
    C376     C        0.33471    0.54954    0.00287    1.000
    C377     C        0.34949    0.55717    0.03919    1.000
    C378     C        0.37010    0.57953    0.03866    1.000
    H379     H        0.42320    0.60066    0.05534    1.000
    H380     H        0.46216    0.63600    0.05197    1.000
    H381     H        0.42164    0.67564    0.94380    1.000
    H382     H        0.38234    0.64094    0.94660    1.000
    H383     H        0.36608    0.59739    0.93533    1.000
    H384     H        0.33022    0.55917    0.93645    1.000
    H385     H        0.34501    0.54599    0.06816    1.000
    H386     H        0.38064    0.58490    0.06770    1.000
    C347     C        0.56988    0.60894    0.99461    1.000
    C348     C        0.54786    0.63014    0.99629    1.000
    C349     C        0.55498    0.65959    0.00294    1.000
    C350     C        0.58457    0.66797    0.00801    1.000
    C351     C        0.60681    0.64660    0.00713    1.000
    C352     C        0.59975    0.61664    0.00021    1.000
    C353     C        0.62314    0.59342    0.99902    1.000
    C354     C        0.65205    0.59810    0.02043    1.000
    C355     C        0.67283    0.57699    0.01988    1.000
    C356     C        0.66750    0.54895    0.99757    1.000
    C357     C        0.64176    0.54448    0.97813    1.000
    C358     C        0.61865    0.56744    0.97902    1.000
    H359     H        0.56293    0.58648    0.98956    1.000
    H360     H        0.52512    0.62357    0.99186    1.000
    H361     H        0.59042    0.69093    0.01268    1.000
    H362     H        0.62939    0.65385    0.01105    1.000
    H363     H        0.65651    0.61822    0.03753    1.000
    H364     H        0.69355    0.58039    0.03601    1.000
    H365     H        0.63772    0.52403    0.96160    1.000
    H366     H        0.59842    0.56268    0.96242    1.000
    C327     C        0.02591    0.79156    0.99417    1.000
    C328     C        0.02434    0.76038    0.99386    1.000
    C329     C        0.99676    0.74586    0.99952    1.000
    C330     C        0.97190    0.76309    0.00614    1.000
    C331     C        0.97346    0.79378    0.00691    1.000
    C332     C        0.00029    0.80879    0.00065    1.000
    C333     C        0.00086    0.84210    0.00073    1.000
    C334     C        0.97706    0.85924    0.02248    1.000
    C335     C        0.97723    0.88888    0.02273    1.000
    C336     C        0.00079    0.90521    0.00095    1.000
    C337     C        0.02221    0.89042    0.98126    1.000
    C338     C        0.02245    0.85764    0.98128    1.000
    H339     H        0.04717    0.80211    0.98976    1.000
    H340     H        0.04463    0.74817    0.98883    1.000
    H341     H        0.95083    0.75241    0.01025    1.000
    H342     H        0.95299    0.80541    0.01140    1.000
    H343     H        0.95954    0.84817    0.03923    1.000
    H344     H        0.96010    0.90095    0.03907    1.000
    H345     H        0.03935    0.90254    0.96507    1.000
    H346     H        0.04007    0.84686    0.96440    1.000
    C307     C        0.89478    0.59264    0.00836    1.000
    C308     C        0.92014    0.61007    0.00861    1.000
    C309     C        0.91896    0.64108    0.00345    1.000
    C310     C        0.89123    0.65387    0.99746    1.000
    C311     C        0.86567    0.63634    0.99642    1.000
    C312     C        0.86693    0.60543    0.00210    1.000
    C313     C        0.83948    0.58673    0.00177    1.000
    C314     C        0.81456    0.59590    0.98229    1.000
    C315     C        0.78754    0.57749    0.98217    1.000
    C316     C        0.78720    0.55149    0.00187    1.000
    C317     C        0.81393    0.54102    0.02366    1.000
    C318     C        0.83868    0.55739    0.02344    1.000
    H319     H        0.89744    0.56904    0.01237    1.000
    H320     H        0.94053    0.59871    0.01323    1.000
    H321     H        0.88928    0.67741    0.99315    1.000
    H322     H        0.84486    0.64738    0.99188    1.000
    H323     H        0.81360    0.61659    0.96557    1.000
    H324     H        0.76798    0.58512    0.96601    1.000
    H325     H        0.81336    0.52006    0.03997    1.000
    H326     H        0.85770    0.54909    0.04018    1.000
    C287     C        0.10472    0.59179    0.99620    1.000
    C288     C        0.07970    0.60938    0.99816    1.000
    C289     C        0.08219    0.64011    0.00359    1.000
    C290     C        0.10985    0.65302    0.00649    1.000
    C291     C        0.13507    0.63536    0.00502    1.000
    C292     C        0.13298    0.60442    0.99995    1.000
    C293     C        0.16010    0.58554    0.99884    1.000
    C294     C        0.18811    0.59607    0.01849    1.000
    C295     C        0.21249    0.57928    0.01781    1.000
    C296     C        0.21210    0.55017    0.99711    1.000
    C297     C        0.18723    0.54034    0.97942    1.000
    C298     C        0.16010    0.55855    0.98050    1.000
    H299     H        0.10150    0.56829    0.99275    1.000
    H300     H        0.05822    0.59893    0.99570    1.000
    H301     H        0.11180    0.67668    0.01004    1.000
    H302     H        0.15610    0.64632    0.00735    1.000
    H303     H        0.18911    0.61709    0.03445    1.000
    H304     H        0.23255    0.58698    0.03262    1.000
    H305     H        0.18699    0.51906    0.96403    1.000
    H306     H        0.14073    0.54963    0.96531    1.000
    C267     C        0.20254    0.01054    0.96848    1.000
    C268     C        0.23345    0.00844    0.96800    1.000
    C269     C        0.24850    0.99064    0.99731    1.000
    C270     C        0.23190    0.97699    0.02845    1.000
    C271     C        0.20109    0.97920    0.02910    1.000
    C272     C        0.18572    0.99532    0.99848    1.000
    C273     C        0.15246    0.99557    0.99763    1.000
    C274     C        0.13505    0.98891    0.03608    1.000
    C275     C        0.10541    0.98879    0.03538    1.000
    C276     C        0.08940    0.99477    0.99629    1.000
    C277     C        0.10449    0.00058    0.96148    1.000
    C278     C        0.13723    0.00115    0.96205    1.000
    H279     H        0.19194    0.02399    0.94501    1.000
    H280     H        0.24525    0.02041    0.94408    1.000
    H281     H        0.24282    0.96369    0.05168    1.000
    H282     H        0.18956    0.96699    0.05287    1.000
    H283     H        0.14593    0.98461    0.06538    1.000
    H284     H        0.09310    0.98434    0.06360    1.000
    H285     H        0.09265    0.00473    0.93275    1.000
    H286     H        0.14824    0.00545    0.93279    1.000
    C247     C        0.35869    0.86022    0.99676    1.000
    C248     C        0.34104    0.88567    0.99784    1.000
    C249     C        0.35373    0.91339    0.00412    1.000
    C250     C        0.38469    0.91477    0.00938    1.000
    C251     C        0.40223    0.88958    0.00896    1.000
    C252     C        0.38957    0.86171    0.00252    1.000
    C253     C        0.40819    0.83442    0.00252    1.000
    C254     C        0.43561    0.83372    0.02329    1.000
    C255     C        0.45212    0.80795    0.02480    1.000
    C256     C        0.44194    0.78222    0.00536    1.000
    C257     C        0.41545    0.78279    0.98330    1.000
    C258     C        0.39860    0.80853    0.98222    1.000
    H259     H        0.34776    0.83935    0.99215    1.000
    H260     H        0.31751    0.88367    0.99337    1.000
    H261     H        0.39596    0.93518    0.01417    1.000
    H262     H        0.42578    0.89244    0.01305    1.000
    H263     H        0.44444    0.85260    0.03954    1.000
    H264     H        0.47298    0.80821    0.04129    1.000
    H265     H        0.40769    0.76329    0.96716    1.000
    H266     H        0.37822    0.80796    0.96497    1.000
    C227     C        0.38440    0.11380    0.03773    1.000
    C228     C        0.36651    0.08900    0.03952    1.000
    C229     C        0.35357    0.07741    0.00346    1.000
    C230     C        0.35943    0.09130    0.96514    1.000
    C231     C        0.37716    0.11638    0.96340    1.000
    C232     C        0.38984    0.12819    0.99976    1.000
    C233     C        0.40850    0.15539    0.99841    1.000
    C234     C        0.40585    0.17520    0.96703    1.000
    C235     C        0.42390    0.20239    0.96642    1.000
    C236     C        0.44340    0.20765    0.99679    1.000
    C237     C        0.44691    0.18624    0.03108    1.000
    C238     C        0.43040    0.16167    0.03212    1.000
    H239     H        0.39336    0.12165    0.06673    1.000
    H240     H        0.36298    0.07872    0.06946    1.000
    H241     H        0.35067    0.08273    0.93619    1.000
    H242     H        0.38123    0.12596    0.93321    1.000
    H243     H        0.39008    0.17232    0.94207    1.000
    H244     H        0.42114    0.21818    0.94142    1.000
    H245     H        0.46295    0.19041    0.05538    1.000
    H246     H        0.43381    0.14635    0.05752    1.000
    C207     C        0.46752    0.98370    0.96151    1.000
    C208     C        0.43684    0.98203    0.96235    1.000
    C209     C        0.42101    0.99158    0.99701    1.000
    C210     C        0.43643    0.00440    0.03050    1.000
    C211     C        0.46722    0.00567    0.03001    1.000
    C212     C        0.48337    0.99471    0.99578    1.000
    C213     C        0.51640    0.99459    0.99607    1.000
    C214     C        0.53197    0.99486    0.03394    1.000
    C215     C        0.56262    0.99614    0.03463    1.000
    C216     C        0.57889    0.99758    0.99765    1.000
    C217     C        0.56368    0.99571    0.95959    1.000
    C218     C        0.53283    0.99417    0.95885    1.000
    H219     H        0.47852    0.97509    0.93441    1.000
    H220     H        0.42537    0.97256    0.93609    1.000
    H221     H        0.42508    0.01272    0.05773    1.000
    H222     H        0.47813    0.01518    0.05676    1.000
    H223     H        0.52080    0.99427    0.06358    1.000
    H224     H        0.57354    0.99672    0.06449    1.000
    H225     H        0.57534    0.99635    0.93024    1.000
    H226     H        0.52209    0.99394    0.92887    1.000
    C187     C        0.02645    0.19634    0.00752    1.000
    C188     C        0.02775    0.22704    0.00677    1.000
    C189     C        0.00276    0.24409    0.00042    1.000
    C190     C        0.97528    0.22948    0.99475    1.000
    C191     C        0.97401    0.19825    0.99480    1.000
    C192     C        0.99975    0.18111    0.00122    1.000
    C193     C        0.99932    0.14772    0.00135    1.000
    C194     C        0.97765    0.13218    0.98205    1.000
    C195     C        0.97785    0.09940    0.98181    1.000
    C196     C        0.99937    0.08452    0.00111    1.000
    C197     C        0.02307    0.10076    0.02271    1.000
    C198     C        0.02327    0.13044    0.02273    1.000
    H199     H        0.04696    0.18486    0.01232    1.000
    H200     H        0.04865    0.23797    0.01144    1.000
    H201     H        0.95483    0.24155    0.99023    1.000
    H202     H        0.95282    0.18755    0.99056    1.000
    H203     H        0.95994    0.14298    0.96540    1.000
    H204     H        0.96061    0.08734    0.96573    1.000
    H205     H        0.04027    0.08851    0.03866    1.000
    H206     H        0.04093    0.14140    0.03933    1.000
    C167     C        0.83797    0.43141    0.97447    1.000
    C168     C        0.81332    0.44786    0.97472    1.000
    C169     C        0.78707    0.43792    0.99808    1.000
    C170     C        0.78776    0.41230    0.01876    1.000
    C171     C        0.81471    0.39381    0.01824    1.000
    C172     C        0.83916    0.40256    0.99725    1.000
    C173     C        0.86678    0.38428    0.99752    1.000
    C174     C        0.86623    0.35357    0.00564    1.000
    C175     C        0.89244    0.33707    0.00734    1.000
    C176     C        0.91958    0.35134    0.00188    1.000
    C177     C        0.92011    0.38126    0.99263    1.000
    C178     C        0.89431    0.39763    0.99016    1.000
    H179     H        0.85667    0.43935    0.95672    1.000
    H180     H        0.81256    0.46851    0.95769    1.000
    H181     H        0.76857    0.40513    0.03619    1.000
    H182     H        0.81422    0.37358    0.03612    1.000
    H183     H        0.84561    0.34211    0.01041    1.000
    H184     H        0.89136    0.31359    0.01335    1.000
    H185     H        0.94095    0.39193    0.98759    1.000
    H186     H        0.89655    0.42090    0.98374    1.000
    C147     C        0.13065    0.35735    0.97829    1.000
    C148     C        0.10422    0.34077    0.97889    1.000
    C149     C        0.07926    0.35119    0.00110    1.000
    C150     C        0.08178    0.37778    0.02228    1.000
    C151     C        0.10781    0.39410    0.02201    1.000
    C152     C        0.13280    0.38442    0.99994    1.000
    C153     C        0.16052    0.40280    0.99983    1.000
    C154     C        0.16629    0.42441    0.03423    1.000
    C155     C        0.19095    0.44083    0.03468    1.000
    C156     C        0.21273    0.43815    0.00076    1.000
    C157     C        0.20800    0.41907    0.96968    1.000
    C158     C        0.18100    0.40052    0.96921    1.000
    H159     H        0.14939    0.34883    0.96112    1.000
    H160     H        0.10360    0.32030    0.96151    1.000
    H161     H        0.06299    0.38615    0.03876    1.000
    H162     H        0.10759    0.41482    0.03849    1.000
    H163     H        0.15108    0.42682    0.05996    1.000
    H164     H        0.19502    0.45604    0.06009    1.000
    H165     H        0.22397    0.41728    0.94471    1.000
    H166     H        0.17817    0.38572    0.94310    1.000
    C127     C        0.01665    0.46429    0.02888    1.000
    C128     C        0.01864    0.43367    0.02890    1.000
    C129     C        0.00326    0.41692    0.99958    1.000
    C130     C        0.98373    0.43156    0.97229    1.000
    C131     C        0.98104    0.46222    0.97299    1.000
    C132     C        0.99835    0.47915    0.00047    1.000
    C133     C        0.99822    0.51207    0.99923    1.000
    C134     C        0.97499    0.52730    0.98388    1.000
    C135     C        0.97532    0.55992    0.98306    1.000
    C136     C        0.99891    0.57481    0.99692    1.000
    C137     C        0.02482    0.55861    0.01299    1.000
    C138     C        0.02456    0.52905    0.01428    1.000
    H139     H        0.02984    0.47613    0.05126    1.000
    H140     H        0.03310    0.42333    0.05111    1.000
    H141     H        0.97087    0.41963    0.94952    1.000
    H142     H        0.96645    0.47232    0.95043    1.000
    H143     H        0.95535    0.51628    0.97268    1.000
    H144     H        0.95625    0.57171    0.97145    1.000
    H145     H        0.04412    0.57064    0.02354    1.000
    H146     H        0.04419    0.51792    0.02555    1.000
