# CIF file generated by openbabel 3.1.0, see https://openbabel.org
data_I
_chemical_name_common 'cpj_v1-4c_Cu_pw_N_v2-4c_Cu_pw_N_1B_2F_Ch'
_cell_length_a 30.5936
_cell_length_b 30.5926
_cell_length_c 22.3244
_cell_angle_alpha 90
_cell_angle_beta 90
_cell_angle_gamma 90.0002
_space_group_name_H-M_alt 'P 1'
_space_group_name_Hall 'P 1'
loop_
    _symmetry_equiv_pos_as_xyz
    x,y,z
loop_
    _atom_site_label
    _atom_site_type_symbol
    _atom_site_fract_x
    _atom_site_fract_y
    _atom_site_fract_z
    _atom_site_occupancy
    Cu1      Cu       0.67195    0.33429    0.95077    1.000
    Cu2      Cu       0.66994    0.33383    0.05452    1.000
    O3       O        0.73278    0.32142    0.95295    1.000
    O4       O        0.73136    0.32452    0.05604    1.000
    O5       O        0.60994    0.34732    0.94988    1.000
    O6       O        0.60853    0.34369    0.05309    1.000
    C7       C        0.75068    0.34131    0.00377    1.000
    C8       C        0.59137    0.32663    0.99983    1.000
    O9       O        0.68466    0.39569    0.95345    1.000
    O10      O        0.67925    0.39525    0.05574    1.000
    O11      O        0.66178    0.27217    0.94818    1.000
    O12      O        0.66141    0.27208    0.05354    1.000
    C13      C        0.64578    0.25235    0.00084    1.000
    C14      C        0.66261    0.41328    0.00283    1.000
    N15      N        0.66866    0.33322    0.14277    1.000
    N16      N        0.67348    0.33574    0.86249    1.000
    Cu17     Cu       0.30898    0.33223    0.94676    1.000
    Cu18     Cu       0.31303    0.33181    0.05054    1.000
    O19      O        0.31484    0.26980    0.94635    1.000
    O20      O        0.32357    0.27030    0.05132    1.000
    O21      O        0.30013    0.39468    0.94779    1.000
    O22      O        0.30187    0.39300    0.05023    1.000
    C23      C        0.33462    0.25012    0.99653    1.000
    C24      C        0.32136    0.41065    0.99886    1.000
    O25      O        0.37125    0.34126    0.94320    1.000
    O26      O        0.37452    0.34371    0.04665    1.000
    O27      O        0.24783    0.32327    0.95026    1.000
    O28      O        0.25167    0.31979    0.05322    1.000
    C29      C        0.23186    0.34028    0.00406    1.000
    C30      C        0.39088    0.32403    0.99473    1.000
    N31      N        0.31553    0.33244    0.13878    1.000
    N32      N        0.30621    0.33245    0.85853    1.000
    Cu33     Cu       0.31375    0.68159    0.95023    1.000
    Cu34     Cu       0.31333    0.68185    0.05396    1.000
    O35      O        0.25313    0.69495    0.95088    1.000
    O36      O        0.25136    0.68812    0.05398    1.000
    O37      O        0.37519    0.66882    0.95086    1.000
    O38      O        0.37595    0.67513    0.05415    1.000
    C39      C        0.23385    0.67346    0.99958    1.000
    C40      C        0.39281    0.69105    0.00009    1.000
    O41      O        0.30071    0.62005    0.95248    1.000
    O42      O        0.30782    0.61971    0.05473    1.000
    O43      O        0.32541    0.74329    0.94823    1.000
    O44      O        0.31650    0.74413    0.05302    1.000
    C45      C        0.33624    0.76379    0.00290    1.000
    C46      C        0.32429    0.60288    0.00079    1.000
    N47      N        0.31328    0.68239    0.14225    1.000
    N48      N        0.31353    0.68030    0.86195    1.000
    Cu49     Cu       0.66892    0.68456    0.04744    1.000
    Cu50     Cu       0.67068    0.68588    0.94447    1.000
    O51      O        0.73042    0.67322    0.05164    1.000
    O52      O        0.73311    0.68608    0.94822    1.000
    O53      O        0.60767    0.69689    0.04317    1.000
    O54      O        0.60813    0.68816    0.94098    1.000
    C55      C        0.75112    0.66325    0.99692    1.000
    C56      C        0.59170    0.67224    0.99516    1.000
    O57      O        0.65586    0.62303    0.04568    1.000
    O58      O        0.66819    0.62299    0.94324    1.000
    O59      O        0.68263    0.74537    0.04726    1.000
    O60      O        0.67266    0.74813    0.94510    1.000
    C61      C        0.65959    0.76539    0.00047    1.000
    C62      C        0.67973    0.60434    0.99859    1.000
    N63      N        0.67321    0.68656    0.85626    1.000
    N64      N        0.66604    0.68444    0.13567    1.000
    Cu65     Cu       0.23879    0.00693    0.94687    1.000
    Cu66     Cu       0.23775    0.00540    0.05197    1.000
    O67      O        0.18696    0.04176    0.94765    1.000
    O68      O        0.18431    0.03825    0.05066    1.000
    O69      O        0.29094    0.97224    0.94771    1.000
    O70      O        0.29085    0.97226    0.05106    1.000
    C71      C        0.18705    0.06617    0.00092    1.000
    C72      C        0.28916    0.94629    0.99938    1.000
    O73      O        0.20387    0.95475    0.94602    1.000
    O74      O        0.20488    0.95239    0.04932    1.000
    O75      O        0.27338    0.05906    0.94946    1.000
    O76      O        0.27088    0.05853    0.05272    1.000
    C77      C        0.29807    0.05708    0.00224    1.000
    C78      C        0.17847    0.95587    0.99834    1.000
    N79      N        0.23696    0.00436    0.14027    1.000
    N80      N        0.23950    0.00803    0.85857    1.000
    Cu81     Cu       0.99547    0.25437    0.94677    1.000
    Cu82     Cu       0.00078    0.25393    0.05188    1.000
    O83      O        0.94380    0.21804    0.95181    1.000
    O84      O        0.95228    0.21330    0.05590    1.000
    O85      O        0.04600    0.29079    0.94397    1.000
    O86      O        0.04861    0.29398    0.04692    1.000
    C87      C        0.94664    0.19021    0.00176    1.000
    C88      C        0.04327    0.31807    0.99415    1.000
    O89      O        0.03404    0.20458    0.94280    1.000
    O90      O        0.04275    0.20733    0.04656    1.000
    O91      O        0.95858    0.30486    0.95103    1.000
    O92      O        0.96010    0.30208    0.05629    1.000
    C93      C        0.93550    0.29775    0.00397    1.000
    C94      C        0.03500    0.18075    0.99655    1.000
    N95      N        0.00552    0.25339    0.13996    1.000
    N96      N        0.99128    0.25503    0.85864    1.000
    Cu97     Cu       0.75144    0.00579    0.94554    1.000
    Cu98     Cu       0.74982    0.00271    0.05007    1.000
    O99      O        0.78231    0.95105    0.94501    1.000
    O100     O        0.77970    0.94786    0.04760    1.000
    O101     O        0.72165    0.06090    0.94745    1.000
    O102     O        0.71973    0.05674    0.05167    1.000
    C103     C        0.80721    0.95098    0.99787    1.000
    C104     C        0.69608    0.06670    0.99929    1.000
    O105     O        0.80567    0.03575    0.94909    1.000
    O106     O        0.80505    0.03367    0.05195    1.000
    O107     O        0.69657    0.97593    0.94335    1.000
    O108     O        0.69504    0.97281    0.04628    1.000
    C109     C        0.69575    0.94833    0.99333    1.000
    C110     C        0.80459    0.06105    0.00136    1.000
    N111     N        0.74861    0.00032    0.13831    1.000
    N112     N        0.75294    0.00775    0.85730    1.000
    Cu113    Cu       0.99378    0.77074    0.94779    1.000
    Cu114    Cu       0.99634    0.76611    0.05170    1.000
    O115     O        0.03980    0.81295    0.94960    1.000
    O116     O        0.04023    0.81041    0.05203    1.000
    O117     O        0.94655    0.72951    0.94574    1.000
    O118     O        0.95163    0.72231    0.05153    1.000
    C119     C        0.06500    0.80403    0.00026    1.000
    C120     C        0.93865    0.70324    0.99660    1.000
    O121     O        0.95249    0.81720    0.95462    1.000
    O122     O        0.95284    0.81079    0.05708    1.000
    O123     O        0.03625    0.72461    0.94208    1.000
    O124     O        0.04067    0.72192    0.04545    1.000
    C125     C        0.03279    0.69805    0.99300    1.000
    C126     C        0.92728    0.80798    0.00530    1.000
    N127     N        0.99908    0.76278    0.13983    1.000
    N128     N        0.99174    0.77507    0.85971    1.000
    C279     C        0.90107    0.87557    0.04931    1.000
    C280     C        0.90725    0.84977    0.00152    1.000
    C281     C        0.88009    0.85566    0.94724    1.000
    C282     C        0.84894    0.88664    0.94588    1.000
    C283     C        0.84170    0.91560    0.99881    1.000
    C284     C        0.86709    0.91017    0.04798    1.000
    F285     F        0.86183    0.93597    0.09710    1.000
    H286     H        0.92101    0.87104    0.08902    1.000
    H287     H        0.82944    0.89055    0.90564    1.000
    F288     F        0.88688    0.82968    0.89880    1.000
    C269     C        0.89531    0.13894    0.94957    1.000
    C270     C        0.90920    0.15770    0.00361    1.000
    C271     C        0.88826    0.14482    0.05720    1.000
    C272     C        0.85454    0.11376    0.05598    1.000
    C273     C        0.84104    0.09473    0.00177    1.000
    C274     C        0.86167    0.10818    0.94826    1.000
    F275     F        0.84947    0.09205    0.89415    1.000
    H276     H        0.91050    0.14832    0.90767    1.000
    H277     H        0.83921    0.10427    0.09774    1.000
    F278     F        0.90052    0.16142    0.11100    1.000
    C259     C        0.13894    0.11890    0.05366    1.000
    C260     C        0.15040    0.09956    0.00147    1.000
    C261     C        0.12664    0.11243    0.94534    1.000
    C262     C        0.09444    0.14230    0.94752    1.000
    C263     C        0.08189    0.16246    0.00522    1.000
    C264     C        0.10299    0.15140    0.05558    1.000
    F265     F        0.09116    0.16981    0.10849    1.000
    H266     H        0.15547    0.11059    0.09518    1.000
    H267     H        0.07752    0.15189    0.90687    1.000
    F268     F        0.13751    0.09499    0.89134    1.000
    C249     C        0.06932    0.89400    0.00213    1.000
    C250     C        0.08220    0.85212    0.99860    1.000
    C251     C        0.12933    0.84135    0.99437    1.000
    C252     C        0.15926    0.87351    0.99416    1.000
    C253     C        0.14516    0.92002    0.99803    1.000
    C254     C        0.10221    0.92966    0.00180    1.000
    F255     F        0.08856    0.97189    0.00572    1.000
    H256     H        0.03479    0.90167    0.00538    1.000
    H257     H        0.19378    0.86554    0.99112    1.000
    F258     F        0.14213    0.79892    0.99077    1.000
    C239     C        0.69058    0.88262    0.95173    1.000
    C240     C        0.68388    0.90594    0.00900    1.000
    C241     C        0.67002    0.88408    0.05741    1.000
    C242     C        0.66143    0.83640    0.05381    1.000
    C243     C        0.66787    0.81435    0.00206    1.000
    C244     C        0.68325    0.83939    0.94800    1.000
    F245     F        0.68965    0.81938    0.89431    1.000
    H246     H        0.70148    0.90066    0.91264    1.000
    H247     H        0.65043    0.81947    0.09383    1.000
    F248     F        0.66428    0.90567    0.10996    1.000
    C229     C        0.82546    0.66306    0.94970    1.000
    C230     C        0.79954    0.67356    0.99960    1.000
    C231     C        0.81972    0.69357    0.04951    1.000
    C232     C        0.86437    0.70290    0.04866    1.000
    C233     C        0.89026    0.69260    0.99846    1.000
    C234     C        0.87026    0.67234    0.94903    1.000
    F235     F        0.89404    0.66186    0.89973    1.000
    H236     H        0.81078    0.64776    0.91084    1.000
    H237     H        0.87838    0.71847    0.08772    1.000
    F238     F        0.79680    0.70469    0.09928    1.000
    C219     C        0.46529    0.72559    0.99828    1.000
    C220     C        0.44167    0.68842    0.99990    1.000
    C221     C        0.46452    0.64539    0.00170    1.000
    C222     C        0.50845    0.64387    0.00163    1.000
    C223     C        0.53420    0.68490    0.00001    1.000
    C224     C        0.51374    0.72368    0.99844    1.000
    F225     F        0.53745    0.76119    0.99718    1.000
    H226     H        0.44916    0.75722    0.99710    1.000
    H227     H        0.52529    0.61267    0.00278    1.000
    F228     F        0.44115    0.60759    0.00317    1.000
    C209     C        0.15452    0.64569    0.99373    1.000
    C210     C        0.18566    0.68275    0.99913    1.000
    C211     C        0.17012    0.72407    0.00362    1.000
    C212     C        0.12234    0.73214    0.00303    1.000
    C213     C        0.09437    0.69853    0.99812    1.000
    C214     C        0.11120    0.65322    0.99326    1.000
    F215     F        0.08268    0.61942    0.98830    1.000
    H216     H        0.16674    0.61247    0.99016    1.000
    H217     H        0.10986    0.76525    0.00657    1.000
    F218     F        0.19780    0.75870    0.00861    1.000
    C199     C        0.32820    0.83601    0.05163    1.000
    C200     C        0.32320    0.81170    0.00145    1.000
    C201     C        0.30469    0.83327    0.94652    1.000
    C202     C        0.29328    0.87571    0.94793    1.000
    C203     C        0.29851    0.90147    0.00351    1.000
    C204     C        0.31510    0.88268    0.05271    1.000
    F205     F        0.31947    0.90638    0.10378    1.000
    H206     H        0.34136    0.82159    0.09227    1.000
    H207     H        0.28013    0.89136    0.90820    1.000
    F208     F        0.29943    0.81094    0.89436    1.000
    C189     C        0.30815    0.18248    0.04975    1.000
    C190     C        0.32202    0.20200    0.99854    1.000
    C191     C        0.32479    0.17507    0.94275    1.000
    C192     C        0.31334    0.13261    0.94358    1.000
    C193     C        0.29849    0.11191    0.99992    1.000
    C194     C        0.29613    0.13552    0.05033    1.000
    F195     F        0.28281    0.11634    0.10208    1.000
    H196     H        0.30570    0.20029    0.09163    1.000
    H197     H        0.31494    0.11321    0.90297    1.000
    F198     F        0.33834    0.19333    0.89043    1.000
    C179     C        0.15560    0.36613    0.00829    1.000
    C180     C        0.18356    0.33220    0.00558    1.000
    C181     C        0.16612    0.28665    0.00273    1.000
    C182     C        0.12274    0.27969    0.00287    1.000
    C183     C        0.09218    0.31721    0.00594    1.000
    C184     C        0.10773    0.35819    0.00857    1.000
    F185     F        0.07953    0.39242    0.01110    1.000
    H186     H        0.16773    0.39948    0.00993    1.000
    H187     H        0.10993    0.24666    0.00060    1.000
    F188     F        0.19391    0.25202    0.99967    1.000
    C169     C        0.33347    0.48379    0.94876    1.000
    C170     C        0.32144    0.46036    0.00042    1.000
    C171     C        0.31051    0.48418    0.05255    1.000
    C172     C        0.31135    0.52980    0.05234    1.000
    C173     C        0.32304    0.55326    0.00058    1.000
    C174     C        0.33426    0.52966    0.94870    1.000
    F175     F        0.34577    0.55098    0.89776    1.000
    H176     H        0.34207    0.46645    0.90813    1.000
    H177     H        0.30311    0.54659    0.09348    1.000
    F178     F        0.29964    0.46392    0.10452    1.000
    C159     C        0.51899    0.34175    0.04822    1.000
    C160     C        0.54191    0.32877    0.99934    1.000
    C161     C        0.51745    0.31542    0.94447    1.000
    C162     C        0.47350    0.31659    0.94375    1.000
    C163     C        0.44898    0.33072    0.99758    1.000
    C164     C        0.47059    0.34261    0.04719    1.000
    F165     F        0.44808    0.35510    0.09675    1.000
    H166     H        0.53521    0.35127    0.08945    1.000
    H167     H        0.45566    0.30710    0.90384    1.000
    F168     F        0.53938    0.30220    0.89469    1.000
    C149     C        0.65852    0.48552    0.94974    1.000
    C150     C        0.66684    0.46269    0.00304    1.000
    C151     C        0.67884    0.48678    0.05453    1.000
    C152     C        0.68264    0.53227    0.05185    1.000
    C153     C        0.67455    0.55506    0.99846    1.000
    C154     C        0.66237    0.53102    0.94706    1.000
    F155     F        0.65463    0.55087    0.89376    1.000
    H156     H        0.64940    0.46790    0.90953    1.000
    H157     H        0.69181    0.54990    0.09203    1.000
    F158     F        0.68667    0.46697    0.10785    1.000
    C139     C        0.81380    0.29268    0.03071    1.000
    C140     C        0.79881    0.33166    0.00486    1.000
    C141     C        0.82919    0.36062    0.97910    1.000
    C142     C        0.87390    0.35024    0.97910    1.000
    C143     C        0.88848    0.31099    0.00519    1.000
    C144     C        0.85804    0.28262    0.03122    1.000
    F145     F        0.87095    0.24465    0.05679    1.000
    H146     H        0.79112    0.26970    0.05063    1.000
    H147     H        0.89701    0.37241    0.95838    1.000
    F148     F        0.81548    0.39836    0.95322    1.000
    C129     C        0.68028    0.18581    0.05001    1.000
    C130     C        0.65808    0.20419    0.00098    1.000
    C131     C        0.64732    0.17682    0.95249    1.000
    C132     C        0.65946    0.13254    0.95255    1.000
    C133     C        0.68219    0.11448    0.00142    1.000
    C134     C        0.69221    0.14202    0.05059    1.000
    F135     F        0.71374    0.12744    0.09991    1.000
    H136     H        0.68896    0.20525    0.08869    1.000
    H137     H        0.65126    0.11240    0.91449    1.000
    F138     F        0.62568    0.19323    0.90410    1.000
